data_I
_audit_creation_date               2025-02-27
_audit_creation_method
;
Olex2 1.5
(compiled 2024.02.16 svn.r378c4104 for OlexSys, GUI svn.r6928)
;
_audit_contact_author_address      ?
_audit_contact_author_email        ?
_audit_contact_author_name         ''
_audit_contact_author_phone        ?
_publ_contact_author_id_orcid      ?
_publ_section_references
;
Bourhis, L.J., Dolomanov, O.V., Gildea, R.J., Howard, J.A.K., Puschmann, H.
 (2015). Acta Cryst. A71, 59-75.

Dolomanov, O.V., Bourhis, L.J., Gildea, R.J, Howard, J.A.K. & Puschmann, H.
 (2009), J. Appl. Cryst. 42, 339-341.
;
_chemical_name_common              urea
_chemical_name_systematic
;
 ?
;
_chemical_formula_moiety           '2(C0.5 H2 N O0.5)'
_chemical_formula_sum              'C H4 N2 O'
_chemical_formula_weight           60.056
_chemical_absolute_configuration   unk
loop_
  _atom_type_symbol
  _atom_type_scat_dispersion_real
  _atom_type_scat_dispersion_imag
  _atom_type_scat_Cromer_Mann_a1
  _atom_type_scat_Cromer_Mann_a2
  _atom_type_scat_Cromer_Mann_a3
  _atom_type_scat_Cromer_Mann_a4
  _atom_type_scat_Cromer_Mann_b1
  _atom_type_scat_Cromer_Mann_b2
  _atom_type_scat_Cromer_Mann_b3
  _atom_type_scat_Cromer_Mann_b4
  _atom_type_scat_Cromer_Mann_c
  _atom_type_scat_source
  _atom_type_scat_dispersion_source
 C 0.00080 0.00080 2.31000 1.02000 1.58860 0.86500 20.84390 10.20750 0.56870
 51.65120 0.21560 'International Tables Volume C Table 6.1.1.4 (pp. 500-502)'
 'Brennan, Cowan, Rev. Sci. Instrum., 1992, 63, 850'
 H 0.00000 0.00000 0.49300 0.32291 0.14019 0.04081 10.51090 26.12570 3.14236
 57.79970 0.00304 'International Tables Volume C Table 6.1.1.4 (pp. 500-502)'
 'Brennan, Cowan, Rev. Sci. Instrum., 1992, 63, 850'
 N 0.00380 0.00230 12.21260 3.13220 2.01250 1.16630 0.00570 9.89330 28.99750
 0.58260 -11.52900 'International Tables Volume C Table 6.1.1.4 (pp. 500-502)'
 'Brennan, Cowan, Rev. Sci. Instrum., 1992, 63, 850'
 O 0.00440 0.00300 3.04850 2.28680 1.54630 0.86700 13.27710 5.70110 0.32390
 32.90890 0.25080 'International Tables Volume C Table 6.1.1.4 (pp. 500-502)'
 'Brennan, Cowan, Rev. Sci. Instrum., 1992, 63, 850'

_space_group_crystal_system        'tetragonal'
_space_group_IT_number             113
_space_group_name_H-M_alt          'P -4 21 m'
_space_group_name_Hall             ' P -4 2ab'
loop_
  _space_group_symop_id
  _space_group_symop_operation_xyz
 1 x,y,z
 2 y,-x,-z
 3 -y,x,-z
 4 x+1/2,-y+1/2,-z
 5 -x+1/2,y+1/2,-z
 6 -x,-y,z
 7 -y+1/2,-x+1/2,z
 8 y+1/2,x+1/2,z

_symmetry_Int_Tables_number        113
_cell_length_a                     5.5780(6)
_cell_length_b                     5.5780(6)
_cell_length_c                     4.6860(7)
_cell_angle_alpha                  90
_cell_angle_beta                   90
_cell_angle_gamma                  90
_cell_volume                       145.80(3)
_cell_formula_units_Z              2
_cell_measurement_reflns_used      17
_cell_measurement_temperature      123(2)

loop_
  _atom_site_label
  _atom_site_type_symbol
  _atom_site_fract_x
  _atom_site_fract_y
  _atom_site_fract_z
  _atom_site_U_iso_or_equiv
  _atom_site_adp_type
  _atom_site_occupancy
  _atom_site_site_symmetry_order
  _atom_site_refinement_flags_posn
  _atom_site_refinement_flags_adp
  _atom_site_refinement_flags_occupancy
 O O 0.000000 0.500000 0.596340 0.015270 Uani 1.000000 4 S T P
 N N 0.14485(4) 0.64485(4) 0.17845(6) 0.02265(7) Uani 1.000000 2 S T P
 Ha H 0.1376(15) 0.6376(15) -0.019(3) 0.034(3) Uiso 1.000000 2 S T P
 Hb H 0.2432(14) 0.7432(14) 0.276(2) 0.030(3) Uiso 1.000000 2 S T P
 C C 0.000000 0.500000 0.328210 0.012377 Uani 1.000000 4 S T P

loop_
  _atom_site_aniso_label
  _atom_site_aniso_U_11
  _atom_site_aniso_U_22
  _atom_site_aniso_U_33
  _atom_site_aniso_U_12
  _atom_site_aniso_U_13
  _atom_site_aniso_U_23
 O1 0.019580 0.019580 0.006650 0.001640 -0.000000 0.000000
 N 0.02922(10) 0.02922(10) 0.00950(6) -0.01547(12) 0.00008(5) 0.00008(5)
 C 0.015190 0.015190 0.006750 -0.000350 -0.000000 0.000000

loop_
  _geom_bond_atom_site_label_1
  _geom_bond_atom_site_label_2
  _geom_bond_distance
  _geom_bond_site_symmetry_2
  _geom_bond_publ_flag
 O C 1.2565 . ?
 N C 1.3410(3) . ?
 N Ha 0.925(14) . ?
 N Hb 0.900(11) . ?
 N C 1.3410(3) 6_565 ?
